power-flow-agent/results/ieee14/2026-09-16/no-llm/rule_based__stress__from-stress_gpt-4o-mini/traces/20_case14-stress-019-s0.transcript.txt
==============================================================================
TRANSCRIPT  rule_based  |  none:rule_based  |  case14  |  case14-stress-019-s0  run 0
==============================================================================
date: 2026-09-16   seed: 0   difficulty: stress   tool variant: None

[system]   no LLM; deterministic parser (baselines/rule_based.py)

[user]
Load case14, disconnect the line between bus 10 and bus 11, disconnect the transformer branch between bus 7 and bus 8, and finally rerun the power flow, then list every line whose loading is above 90%.

[planner output]
[
 {
  "tool": "load_case",
  "args": {
   "case_name": "case14"
  }
 },
 {
  "tool": "disconnect_line",
  "args": {
   "from_bus": 10,
   "to_bus": 11
  }
 },
 {
  "tool": "disconnect_line",
  "args": {
   "from_bus": 7,
   "to_bus": 8
  }
 },
 {
  "tool": "run_powerflow",
  "args": {},
  "derive": {
   "kind": "lines_above_loading",
   "threshold_percent": 90.0
  }
 }
]

--- round 1 ---
[tool load_case]   (gate: not applied)
{"case_name": "case14", "n_buses": 14, "n_generators": 5, "n_lines": 20, "n_loads": 11, "total_load_mw": 265.2259391570721, "total_gen_capacity_mw": 772.4000000000001}
[tool disconnect_line]   (gate: pass)
{"case_name": "case14", "converged": true, "bus_voltages": [{"bus_id": 1, "vm_pu": 1.06, "va_deg": 0.0, "is_violation": true, "violation_type": "overvoltage"}, {"bus_id": 2, "vm_pu": 1.0449999999999997, "va_deg": -5.198518587801991, "is_violation": false, "violation_type": null}, {"bus_id": 3, "vm_pu": 1.0099999999999998, "va_deg": -13.216152173757841, "is_violation": false, "violation_type": null}, {"bus_id": 4, "vm_pu": 1.016734641441255, "va_deg": -10.631804590512203, "is_violation": false, "violation_type": null}, {"bus_id": 5, "vm_pu": 1.0191643579274936, "va_deg": -8.985714527746206, "is_violation": false, "violation_type": null}, {"bus_id": 6, "vm_pu": 1.0700000000000003, "va_deg": -14.058811697033743, "is_violation": true, "violation_type": "overvoltage"}, {"bus_id": 7, "vm_pu": 1.0595166635877695, "va_deg": -13.807725817383476, "is_violation": true, "violation_type": "overvoltage"}, {"bus_id": 8, "vm_pu": 1.0899999999999999, "va_deg": -13.807725817383476, "is_violation": true, "violation_type": "overvoltage"}, {"bus_id": 9, "vm_pu": 1.0522296051983266, "va_deg": -15.45779510762568, "is_violation": true, "violation_type": "overvoltage"}, {"bus_id": 10, "vm_pu": 1.0442922177231677, "va_deg": -15.777785699769401, "is_violation": false, "violation_type": null}, {"bus_id": 11, "vm_pu": 1.0635022184807916, "va_deg": -14.323007218319058, "is_violation": true, "violation_type": "overvoltage"}, {"bus_id": 12, "vm_pu": 1.0553057861808361, "va_deg": -14.941373596725372, "is_violation": true, "violation_type": "overvoltage"}, {"bus_id": 13, "vm_pu": 1.0509260981157469, "va_deg": -15.037867370676057, "is_violation": true, "violation_type": "overvoltage"}, {"bus_id": 14, "vm_pu": 1.0349699241295884, "va_deg": -16.20225929352092, "is_violation": false, "violation_type": null}], "line_flows": [{"line_id": 0, "from_bus": 1, "to_bus": 2, "p_from_mw": 163.41460467335884, "q_from_mvar": -21.917620706901968, "loading_percent": 1.5711633257839321, "is_violation": false}, {"line_id": 1, "from_bus": 1, "to_bus": 5, "p_from_mw": 77.25871720756817, "q_from_mvar": 3.8720870499604474, "loading_percent": 0.7375613875998327, "is_violation": false}, {"line_id": 2, "from_bus": 2, "to_bus": 3, "p_from_mw": 75.71703322290931, "q_from_mvar": 3.3226593116942658, "loading_percent": 0.7328616778455238, "is_violation": false}, {"line_id": 3, "from_bus": 2, "to_bus": 4, "p_from_mw": 57.25201970804426, "q_from_mvar": -1.2655984878246258, "loading_percent": 0.553535416341363, "is_violation": false}, {"line_id": 4, "from_bus": 2, "to_bus": 5, "p_from_mw": 41.525619402869275, "q_from_mvar": 1.3746303352995128, "loading_percent": 0.40323929310713696, "is_violation": false}, {"line_id": 5, "from_bus": 3, "to_bus": 4, "p_from_mw": -24.61362679846611, "q_from_mvar": 5.6244205368780245, "loading_percent": 0.25545670040317064, "is_violation": false}, {"line_id": 6, "from_bus": 4, "to_bus": 5, "p_from_mw": -65.62855499895305, "q_from_mvar": 15.955001489873968, "loading_percent": 0.6709946905200139, "is_violation": false}, {"line_id": 7, "from_bus": 6, "to_bus": 11, "p_from_mw": 3.5098455002136877, "q_from_mvar": 1.8255769275937554, "loading_percent": 0.03734757698314261, "is_violation": false}, {"line_id": 8, "from_bus": 6, "to_bus": 12, "p_from_mw": 7.943555665646761, "q_from_mvar": 2.381979789973563, "loading_percent": 0.07828757987473312, "is_violation": false}, {"line_id": 9, "from_bus": 6, "to_bus": 13, "p_from_mw": 18.10138086605802, "q_from_mvar": 6.601042612344061, "loading_percent": 0.18188829651510524, "is_violation": false}, {"line_id": 10, "from_bus": 9, "to_bus": 10, "p_from_mw": 9.626738419110524, "q_from_mvar": 6.280266783606186, "loading_percent": 0.11033968492091027, "is_violation": false}, {"line_id": 11, "from_bus": 9, "to_bus": 14, "p_from_mw": 6.885263096022753, "q_from_mvar": 3.514023512661493, "loading_percent": 0.0742065385688647, "is_violation": false}, {"line_id": 12, "from_bus": 10, "to_bus": 11, "p_from_mw": 0.0, "q_from_mvar": 0.0, "loading_percent": 0.0, "is_violation": false}, {"line_id": 13, "from_bus": 12, "to_bus": 13, "p_from_mw": 1.5714167842786526, "q_from_mvar": 0.576300279025163, "loading_percent": 0.01602063349127918, "is_violation": false}, {"line_id": 14, "from_bus": 13, "to_bus": 14, "p_from_mw": 7.04884383635976, "q_from_mvar": 1.4208292705864185, "loading_percent": 0.06911283554699026, "is_violation": false}, {"line_id": 100000, "from_bus": 4, "to_bus": 7, "p_from_mw": 29.1813687028138, "q_from_mvar": -9.089302269543523, "loading_percent": 0.3036474280821753, "is_violation": false}, {"line_id": 100001, "from_bus": 4, "to_bus": 9, "p_from_mw": 16.700488667754115, "q_from_mvar": 0.14385257571492088, "loading_percent": 0.16592142709602847, "is_violation": false}, {"line_id": 100002, "from_bus": 5, "to_bus": 6, "p_from_mw": 41.05442999761822, "q_from_mvar": 12.025858990967365, "loading_percent": 0.4239908715320843, "is_violation": false}, {"line_id": 100003, "from_bus": 7, "to_bus": 8, "p_from_mw": -2.6561755167310414e-14, "q_from_mvar": -18.335284070683954, "loading_percent": 0.17480129946774164, "is_violation": false}, {"line_id": 100004, "from_bus": 7, "to_bus": 9, "p_from_mw": 29.181368702358988, "q_from_mvar": 7.43846275236472, "loading_percent": 0.2870996388278841, "is_violation": false}], "total_generation_mw": 279.4219313132812, "total_load_mw": 265.2259391570721, "total_loss_mw": 14.195992162721204, "voltage_violations": [{"bus_id": 1, "vm_pu": 1.06, "va_deg": 0.0, "is_violation": true, "violation_type": "overvoltage"}, {"bus_id": 6, "vm_pu": 1.0700000000000003, "va_deg": -14.058811697033743, "is_violation": true, "violation_type": "overvoltage"}, {"bus_id": 7, "vm_pu": 1.0595166635877695, "va_deg": -13.807725817383476, "is_violation": true, "violation_type": "overvoltage"}, {"bus_id": 8, "vm_pu": 1.0899999999999999, "va_deg": -13.807725817383476, "is_violation": true, "violation_type": "overvoltage"}, {"bus_id": 9, "vm_pu": 1.0522296051983266, "va_deg": -15.45779510762568, "is_violation": true, "violation_type": "overvoltage"}, {"bus_id": 11, "vm_pu": 1.0635022184807916, "va_deg": -14.323007218319058, "is_violation": true, "violation_type": "overvoltage"}, {"bus_id": 12, "vm_pu": 1.0553057861808361, "va_deg": -14.941373596725372, "is_violation": true, "violation_type": "overvoltage"}, {"bus_id": 13, "vm_pu": 1.0509260981157469, "va_deg": -15.037867370676057, "is_violation": true, "violation_type": "overvoltage"}], "thermal_violations": [], "summary_text": "", "solver_backend": "pandapower", "llm_prompt": null, "llm_response": null}
[tool disconnect_line]   (gate: pass)
{"case_name": "case14", "converged": true, "bus_voltages": [{"bus_id": 1, "vm_pu": 1.06, "va_deg": 0.0, "is_violation": true, "violation_type": "overvoltage"}, {"bus_id": 2, "vm_pu": 1.045, "va_deg": -5.209593448613185, "is_violation": false, "violation_type": null}, {"bus_id": 3, "vm_pu": 1.0099999999999998, "va_deg": -13.265659047049802, "is_violation": false, "violation_type": null}, {"bus_id": 4, "vm_pu": 1.0091270300178254, "va_deg": -10.525702152982975, "is_violation": false, "violation_type": null}, {"bus_id": 5, "vm_pu": 1.0143633147267193, "va_deg": -8.942991307424535, "is_violation": false, "violation_type": null}, {"bus_id": 6, "vm_pu": 1.0700000000000003, "va_deg": -14.198052936189733, "is_violation": true, "violation_type": "overvoltage"}, {"bus_id": 7, "vm_pu": 1.0268066913184506, "va_deg": -13.7291839624163, "is_violation": false, "violation_type": null}, {"bus_id": 8, "vm_pu": NaN, "va_deg": NaN, "is_violation": false, "violation_type": null}, {"bus_id": 9, "vm_pu": 1.0254625058181919, "va_deg": -15.424236297987523, "is_violation": false, "violation_type": null}, {"bus_id": 10, "vm_pu": 1.0173137259443572, "va_deg": -15.761287069737493, "is_violation": false, "violation_type": null}, {"bus_id": 11, "vm_pu": 1.0635022184807916, "va_deg": -14.46224845747505, "is_violation": true, "violation_type": "overvoltage"}, {"bus_id": 12, "vm_pu": 1.053305393912909, "va_deg": -15.087557438075953, "is_violation": true, "violation_type": "overvoltage"}, {"bus_id": 13, "vm_pu": 1.0469620559987391, "va_deg": -15.147055445116916, "is_violation": false, "violation_type": null}, {"bus_id": 14, "vm_pu": 1.0178573409585367, "va_deg": -16.254891326028915, "is_violation": false, "violation_type": null}], "line_flows": [{"line_id": 0, "from_bus": 1, "to_bus": 2, "p_from_mw": 163.74976473732647, "q_from_mvar": -21.99457447761683, "loading_percent": 1.5744263165365313, "is_violation": false}, {"line_id": 1, "from_bus": 1, "to_bus": 5, "p_from_mw": 77.08956832845575, "q_from_mvar": 6.110748630730871, "loading_percent": 0.7388425780305703, "is_violation": false}, {"line_id": 2, "from_bus": 2, "to_bus": 3, "p_from_mw": 76.06347896772476, "q_from_mvar": 3.2904245658736917, "loading_percent": 0.7361441600205831, "is_violation": false}, {"line_id": 3, "from_bus": 2, "to_bus": 4, "p_from_mw": 57.06876441315285, "q_from_mvar": 3.1687898051783616, "loading_percent": 0.5539485903283989, "is_violation": false}, {"line_id": 4, "from_bus": 2, "to_bus": 5, "p_from_mw": 41.67817191500522, "q_from_mvar": 4.16619993694715, "loading_percent": 0.40887563215428, "is_violation": false}, {"line_id": 5, "from_bus": 3, "to_bus": 4, "p_from_mw": -24.289649829776017, "q_from_mvar": 10.06068552924979, "loading_percent": 0.26791461196341143, "is_violation": false}, {"line_id": 6, "from_bus": 4, "to_bus": 5, "p_from_mw": -64.35548317646678, "q_from_mvar": 8.7815181806382, "loading_percent": 0.6501454316723291, "is_violation": false}, {"line_id": 7, "from_bus": 6, "to_bus": 11, "p_from_mw": 3.5098455002136175, "q_from_mvar": 1.8255769275935276, "loading_percent": 0.03734757698314103, "is_violation": false}, {"line_id": 8, "from_bus": 6, "to_bus": 12, "p_from_mw": 8.30335664712256, "q_from_mvar": 3.046553571709025, "loading_percent": 0.08349490537664475, "is_violation": false}, {"line_id": 9, "from_bus": 6, "to_bus": 13, "p_from_mw": 19.00976610658966, "q_from_mvar": 9.387657183528301, "loading_percent": 0.2001453685296375, "is_violation": false}, {"line_id": 10, "from_bus": 9, "to_bus": 10, "p_from_mw": 9.628778332263611, "q_from_mvar": 6.285685590949414, "loading_percent": 0.11326582088605906, "is_violation": false}, {"line_id": 11, "from_bus": 9, "to_bus": 14, "p_from_mw": 5.709662456595339, "q_from_mvar": 0.24075338740100002, "loading_percent": 0.05629128880265161, "is_violation": false}, {"line_id": 12, "from_bus": 10, "to_bus": 11, "p_from_mw": 0.0, "q_from_mvar": 0.0, "loading_percent": 0.0, "is_violation": false}, {"line_id": 13, "from_bus": 12, "to_bus": 13, "p_from_mw": 1.921069219533477, "q_from_mvar": 1.2197521046444928, "loading_percent": 0.021822484350440974, "is_violation": false}, {"line_id": 14, "from_bus": 13, "to_bus": 14, "p_from_mw": 8.256907261918291, "q_from_mvar": 4.757541634513012, "loading_percent": 0.09193956031921931, "is_violation": false}, {"line_id": 100000, "from_bus": 4, "to_bus": 7, "p_from_mw": 28.312188278640093, "q_from_mvar": 3.2688952509495577, "loading_percent": 0.2852778274625789, "is_violation": false}, {"line_id": 100001, "from_bus": 4, "to_bus": 9, "p_from_mw": 16.39610836267873, "q_from_mvar": 3.6875316287404174, "loading_percent": 0.16821881851013862, "is_violation": false}, {"line_id": 100002, "from_bus": 5, "to_bus": 6, "p_from_mw": 42.32261621755048, "q_from_mvar": 9.876645524869867, "loading_percent": 0.43277158335426014, "is_violation": false}, {"line_id": 100003, "from_bus": 7, "to_bus": 8, "p_from_mw": 0.0, "q_from_mvar": 0.0, "loading_percent": NaN, "is_violation": false}, {"line_id": 100004, "from_bus": 7, "to_bus": 9, "p_from_mw": 28.31218827823685, "q_from_mvar": 1.6734580791123677, "loading_percent": 0.2790017152534858, "is_violation": false}], "total_generation_mw": 279.58794249813644, "total_load_mw": 265.2259391570721, "total_loss_mw": 14.362003359553626, "voltage_violations": [{"bus_id": 1, "vm_pu": 1.06, "va_deg": 0.0, "is_violation": true, "violation_type": "overvoltage"}, {"bus_id": 6, "vm_pu": 1.0700000000000003, "va_deg": -14.198052936189733, "is_violation": true, "violation_type": "overvoltage"}, {"bus_id": 11, "vm_pu": 1.0635022184807916, "va_deg": -14.46224845747505, "is_violation": true, "violation_type": "overvoltage"}, {"bus_id": 12, "vm_pu": 1.053305393912909, "va_deg": -15.087557438075953, "is_violation": true, "violation_type": "overvoltage"}], "thermal_violations": [], "summary_text": "", "solver_backend": "pandapower", "llm_prompt": null, "llm_response": null}
[tool run_powerflow]   (gate: pass)
{"case_name": "case14", "converged": true, "bus_voltages": [{"bus_id": 1, "vm_pu": 1.06, "va_deg": 0.0, "is_violation": true, "violation_type": "overvoltage"}, {"bus_id": 2, "vm_pu": 1.045, "va_deg": -5.209593448613185, "is_violation": false, "violation_type": null}, {"bus_id": 3, "vm_pu": 1.0099999999999998, "va_deg": -13.265659047049802, "is_violation": false, "violation_type": null}, {"bus_id": 4, "vm_pu": 1.0091270300178254, "va_deg": -10.525702152982975, "is_violation": false, "violation_type": null}, {"bus_id": 5, "vm_pu": 1.0143633147267193, "va_deg": -8.942991307424535, "is_violation": false, "violation_type": null}, {"bus_id": 6, "vm_pu": 1.0700000000000003, "va_deg": -14.198052936189733, "is_violation": true, "violation_type": "overvoltage"}, {"bus_id": 7, "vm_pu": 1.0268066913184506, "va_deg": -13.7291839624163, "is_violation": false, "violation_type": null}, {"bus_id": 8, "vm_pu": NaN, "va_deg": NaN, "is_violation": false, "violation_type": null}, {"bus_id": 9, "vm_pu": 1.0254625058181919, "va_deg": -15.424236297987523, "is_violation": false, "violation_type": null}, {"bus_id": 10, "vm_pu": 1.0173137259443572, "va_deg": -15.761287069737493, "is_violation": false, "violation_type": null}, {"bus_id": 11, "vm_pu": 1.0635022184807916, "va_deg": -14.46224845747505, "is_violation": true, "violation_type": "overvoltage"}, {"bus_id": 12, "vm_pu": 1.053305393912909, "va_deg": -15.087557438075953, "is_violation": true, "violation_type": "overvoltage"}, {"bus_id": 13, "vm_pu": 1.0469620559987391, "va_deg": -15.147055445116916, "is_violation": false, "violation_type": null}, {"bus_id": 14, "vm_pu": 1.0178573409585367, "va_deg": -16.254891326028915, "is_violation": false, "violation_type": null}], "line_flows": [{"line_id": 0, "from_bus": 1, "to_bus": 2, "p_from_mw": 163.74976473732647, "q_from_mvar": -21.99457447761683, "loading_percent": 1.5744263165365313, "is_violation": false}, {"line_id": 1, "from_bus": 1, "to_bus": 5, "p_from_mw": 77.08956832845575, "q_from_mvar": 6.110748630730871, "loading_percent": 0.7388425780305703, "is_violation": false}, {"line_id": 2, "from_bus": 2, "to_bus": 3, "p_from_mw": 76.06347896772476, "q_from_mvar": 3.2904245658736917, "loading_percent": 0.7361441600205831, "is_violation": false}, {"line_id": 3, "from_bus": 2, "to_bus": 4, "p_from_mw": 57.06876441315285, "q_from_mvar": 3.1687898051783616, "loading_percent": 0.5539485903283989, "is_violation": false}, {"line_id": 4, "from_bus": 2, "to_bus": 5, "p_from_mw": 41.67817191500522, "q_from_mvar": 4.16619993694715, "loading_percent": 0.40887563215428, "is_violation": false}, {"line_id": 5, "from_bus": 3, "to_bus": 4, "p_from_mw": -24.289649829776017, "q_from_mvar": 10.06068552924979, "loading_percent": 0.26791461196341143, "is_violation": false}, {"line_id": 6, "from_bus": 4, "to_bus": 5, "p_from_mw": -64.35548317646678, "q_from_mvar": 8.7815181806382, "loading_percent": 0.6501454316723291, "is_violation": false}, {"line_id": 7, "from_bus": 6, "to_bus": 11, "p_from_mw": 3.5098455002136175, "q_from_mvar": 1.8255769275935276, "loading_percent": 0.03734757698314103, "is_violation": false}, {"line_id": 8, "from_bus": 6, "to_bus": 12, "p_from_mw": 8.30335664712256, "q_from_mvar": 3.046553571709025, "loading_percent": 0.08349490537664475, "is_violation": false}, {"line_id": 9, "from_bus": 6, "to_bus": 13, "p_from_mw": 19.00976610658966, "q_from_mvar": 9.387657183528301, "loading_percent": 0.2001453685296375, "is_violation": false}, {"line_id": 10, "from_bus": 9, "to_bus": 10, "p_from_mw": 9.628778332263611, "q_from_mvar": 6.285685590949414, "loading_percent": 0.11326582088605906, "is_violation": false}, {"line_id": 11, "from_bus": 9, "to_bus": 14, "p_from_mw": 5.709662456595339, "q_from_mvar": 0.24075338740100002, "loading_percent": 0.05629128880265161, "is_violation": false}, {"line_id": 12, "from_bus": 10, "to_bus": 11, "p_from_mw": 0.0, "q_from_mvar": 0.0, "loading_percent": 0.0, "is_violation": false}, {"line_id": 13, "from_bus": 12, "to_bus": 13, "p_from_mw": 1.921069219533477, "q_from_mvar": 1.2197521046444928, "loading_percent": 0.021822484350440974, "is_violation": false}, {"line_id": 14, "from_bus": 13, "to_bus": 14, "p_from_mw": 8.256907261918291, "q_from_mvar": 4.757541634513012, "loading_percent": 0.09193956031921931, "is_violation": false}, {"line_id": 100000, "from_bus": 4, "to_bus": 7, "p_from_mw": 28.312188278640093, "q_from_mvar": 3.2688952509495577, "loading_percent": 0.2852778274625789, "is_violation": false}, {"line_id": 100001, "from_bus": 4, "to_bus": 9, "p_from_mw": 16.39610836267873, "q_from_mvar": 3.6875316287404174, "loading_percent": 0.16821881851013862, "is_violation": false}, {"line_id": 100002, "from_bus": 5, "to_bus": 6, "p_from_mw": 42.32261621755048, "q_from_mvar": 9.876645524869867, "loading_percent": 0.43277158335426014, "is_violation": false}, {"line_id": 100003, "from_bus": 7, "to_bus": 8, "p_from_mw": 0.0, "q_from_mvar": 0.0, "loading_percent": NaN, "is_violation": false}, {"line_id": 100004, "from_bus": 7, "to_bus": 9, "p_from_mw": 28.31218827823685, "q_from_mvar": 1.6734580791123677, "loading_percent": 0.2790017152534858, "is_violation": false}], "total_generation_mw": 279.58794249813644, "total_load_mw": 265.2259391570721, "total_loss_mw": 14.362003359553626, "voltage_violations": [{"bus_id": 1, "vm_pu": 1.06, "va_deg": 0.0, "is_violation": true, "violation_type": "overvoltage"}, {"bus_id": 6, "vm_pu": 1.0700000000000003, "va_deg": -14.198052936189733, "is_violation": true, "violation_type": "overvoltage"}, {"bus_id": 11, "vm_pu": 1.0635022184807916, "va_deg": -14.46224845747505, "is_violation": true, "violation_type": "overvoltage"}, {"bus_id": 12, "vm_pu": 1.053305393912909, "va_deg": -15.087557438075953, "is_violation": true, "violation_type": "overvoltage"}], "thermal_violations": [], "summary_text": "", "solver_backend": "pandapower", "llm_prompt": null, "llm_response": null}

[final answer]
Loaded case14 (14 buses, 20 branches).
disconnect_line: converged; load 265.226 MW, generation 279.422 MW, losses 14.196 MW; 8 voltage and 0 thermal violation(s).
disconnect_line: converged; load 265.226 MW, generation 279.588 MW, losses 14.362 MW; 4 voltage and 0 thermal violation(s).
run_powerflow: converged; load 265.226 MW, generation 279.588 MW, losses 14.362 MW; 4 voltage and 0 thermal violation(s).
No lines above 90% loading.
